*SPEF "IEEE 1481-1998"
*CAP_UNIT 1 PF
*RES_UNIT 1 OHM
*D_NET victim 0.03
*CONN
*P victim O
*CAP
1 victim 0.01
2 victim aggressor 0.02
*RES
1 victim aggressor 100
*END
